// Generated for: spectre
// Generated on: Sep 25 17:50:14 2018
// Design library name: tutorials
// Design cell name: osc_inv1
// Design view name: schematic
simulator lang=spectre
global 0 vdd!
include "/home/shin/pdk/ncsu-cdk-1.6.0.beta/models/spectre/nom/ami06N.m"
include "/home/shin/pdk/ncsu-cdk-1.6.0.beta/models/spectre/nom/ami06P.m"

// Library name: tutorials
// Cell name: inv3
// View name: schematic
subckt inv3 in out
    N0 (out in 0 0) ami06N w=1.5u l=600n as=2.25e-12 ad=2.25e-12 ps=6u \
        pd=6u m=1 region=sat
    P0 (out in vdd! vdd!) ami06P w=3u l=600n as=4.5e-12 ad=4.5e-12 ps=9u \
        pd=9u m=1 region=sat
ends inv3
// End of subcircuit definition.

// Library name: tutorials
// Cell name: osc_inv1
// View name: schematic
I3 (v3 v4) inv3
I10 (v10 v11) inv3
I9 (v6 v7) inv3
I8 (v7 v8) inv3
I7 (v9 v10) inv3
I6 (v5 v6) inv3
I5 (v8 v9) inv3
I4 (v4 v5) inv3
I2 (v2 v3) inv3
I1 (v1 v2) inv3
I0 (v11 v1) inv3
include "./_graphical_stimuli.scs"
ic v11=0 
simulatorOptions options reltol=1e-3 vabstol=1e-6 iabstol=1e-12 temp=27 \
    tnom=27 scalem=1.0 scale=1.0 gmin=1e-12 rforce=1 maxnotes=5 maxwarns=5 \
    digits=5 cols=80 pivrel=1e-3 sensfile="../psf/sens.output" \
    checklimitdest=psf 
tran tran stop=4n errpreset=moderate write="spectre.ic" \
    writefinal="spectre.fc" annotate=status maxiters=5 
finalTimeOP info what=oppoint where=rawfile
modelParameter info what=models where=rawfile
element info what=inst where=rawfile
outputParameter info what=output where=rawfile
designParamVals info what=parameters where=rawfile
primitives info what=primitives where=rawfile
subckts info what=subckts where=rawfile
saveOptions options save=allpub
